matpower/case9Q.m
function mpc = case9Q
mpc.version = '2';
mpc.baseMVA = 100;
mpc.bus =[
	1	3	0	0	0	0	1	1.0498224	0.0	345	1	1.1	0.9;
	2	3	0	0	0	0	1	1.1	0.0	345	1	1.1	0.9;
	3	3	0	0	0	0	1	1.0507802	0.0	345	1	1.1	0.9;
	4	1	31.577536	32.438675	0	0	1	0.96647453	-5.3359618	345	1	1.1	0.9;
	5	1	98.235519	94.39801	0	0	1	0.91500133	-8.0414219	345	1	1.1	0.9;
	6	1	38.596695	34.89975	0	0	1	1.0000969	-4.0538244	345	1	1.1	0.9;
	7	1	103.23082	103.41602	0	0	1	0.96287972	-6.7020469	345	1	1.1	0.9;
	8	1	30.377918	31.48171	0	0	1	1.0133909	-4.7054729	345	1	1.1	0.9;
	9	1	132.09753	126.78917	0	0	1	0.90000004	-9.1799231	345	1	1.1	0.9;
];
mpc.gen = [
	1	163.81207	159.54417	300	-300	1	100	1	250	10	0	0	0	0	0	0	0	0	0	0	0;
	2	146.31268	158.44341	300	-300	1	100	1	300	10	0	0	0	0	0	0	0	0	0	0	0;
	3	126.77576	95.368935	300	-300	1	100	1	270	10	0	0	0	0	0	0	0	0	0	0	0;
];
mpc.branch =[
	1	4	0	0.0576	0	250	250	250	0	0	1	-360	360;
	4	5	0.017	0.092	0.158	250	250	250	0	0	1	-360	360;
	5	6	0.039	0.17	0.358	150	150	150	0	0	1	-360	360;
	3	6	0	0.0586	0	300	300	300	0	0	1	-360	360;
	6	7	0.0119	0.1008	0.209	150	150	150	0	0	1	-360	360;
	7	8	0.0085	0.072	0.149	250	250	250	0	0	1	-360	360;
	8	2	0	0.0625	0	250	250	250	0	0	1	-360	360;
	8	9	0.032	0.161	0.306	250	250	250	0	0	1	-360	360;
	9	4	0.01	0.085	0.176	250	250	250	0	0	1	-360	360;
];
mpc.gencost = [
	2	1500	0	3	0.11	5	150;
	2	2000	0	3	0.085	1.2	600;
	2	3000	0	3	0.1225	1	335;
	2	0	0	3	0.2	0	0;
	2	0	0	3	0.05	0	0;
	2	0	0	3	0.3	0	0;
];
